<?xml version="1.0" encoding="UTF-8"?>
<nodes>
    <node id="CENTER" x="0.0"    y="0.0"    type="traffic_light"/>
    <node id="NORTH"  x="0.0"    y="200.0"  type="priority"/>
    <node id="SOUTH"  x="0.0"    y="-200.0" type="priority"/>
    <node id="EAST"   x="200.0"  y="0.0"    type="priority"/>
    <node id="WEST"   x="-200.0" y="0.0"    type="priority"/>
</nodes>
